<?xml version="1.0" encoding="UTF-8"?>
<routes>
    <vType id="car" accel="1.0" decel="4.5" sigma="0.5" length="5" minGap="2.5" maxSpeed="13.89" guiShape="passenger"/>

    <route id="north2south" edges="north2center center2south"/>
    <route id="west2east" edges="west2center center2east"/>

    <vehicle id="veh1" type="car" route="north2south" depart="0"/>
    <vehicle id="veh2" type="car" route="west2east" depart="2"/>
</routes>
