<?xml version="1.0" encoding="UTF-8"?>
<nodes>
    <node id="north" x="0" y="100" type="priority"/>
    <node id="south" x="0" y="-100" type="priority"/>
    <node id="west" x="-100" y="0" type="priority"/>
    <node id="east" x="100" y="0" type="priority"/>
    <node id="center" x="0" y="0" type="traffic_light"/>
</nodes>
